Version 4
SHEET 1 880 948
WIRE 224 16 128 16
WIRE 384 16 224 16
WIRE 128 32 128 16
WIRE 224 128 224 16
WIRE 128 144 128 112
WIRE 192 144 128 144
WIRE 496 160 256 160
WIRE -80 176 -160 176
WIRE 32 176 0 176
WIRE 192 176 32 176
WIRE -160 224 -160 176
WIRE 128 224 128 144
WIRE 32 240 32 176
WIRE -160 320 -160 304
WIRE 32 320 32 304
WIRE 32 320 -160 320
WIRE 128 320 128 304
WIRE 128 320 32 320
WIRE 224 320 224 192
WIRE 224 320 128 320
WIRE 384 320 384 96
WIRE 384 320 224 320
WIRE 128 336 128 320
WIRE 416 528 176 528
WIRE 176 544 176 528
WIRE 176 640 176 624
WIRE 128 720 96 720
WIRE 416 720 416 528
WIRE 176 768 176 736
WIRE 240 768 176 768
WIRE 0 800 -80 800
WIRE 96 800 96 720
WIRE 96 800 80 800
WIRE 416 800 176 800
WIRE 176 816 176 800
WIRE 96 896 96 800
WIRE 128 896 96 896
WIRE 176 944 176 912
WIRE 240 944 240 768
WIRE 240 944 176 944
FLAG 128 336 0
SYMBOL Comparators\\LT1716 224 160 R0
SYMATTR InstName U1
SYMBOL res 112 16 R0
SYMATTR InstName R1
SYMATTR Value 120k
SYMBOL res 112 208 R0
SYMATTR InstName R2
SYMATTR Value 150k
SYMBOL h -160 208 R0
SYMATTR InstName H1
SYMBOL voltage 384 0 R0
WINDOW 123 0 0 Left 0
WINDOW 39 0 0 Left 0
SYMATTR InstName V1
SYMATTR Value 3.3
SYMBOL res 16 160 R90
WINDOW 0 0 56 VBottom 2
WINDOW 3 32 56 VTop 2
SYMATTR InstName R3
SYMATTR Value 100k
SYMBOL cap 16 240 R0
SYMATTR InstName C1
SYMATTR Value 10µ
SYMBOL nmos 128 640 R0
WINDOW 0 56 45 Left 2
WINDOW 3 -122 45 Left 2
SYMATTR InstName M1
SYMATTR Value IRFP250N
SYMBOL nmos 128 816 R0
WINDOW 3 -117 113 Left 2
SYMATTR Value IRFP250N
SYMATTR InstName M2
SYMBOL res 96 784 R90
WINDOW 0 0 56 VBottom 2
WINDOW 3 32 56 VTop 2
SYMATTR InstName R4
SYMATTR Value 10
SYMBOL res 192 640 R180
WINDOW 0 36 76 Left 2
WINDOW 3 36 40 Left 2
SYMATTR InstName R5
SYMATTR Value 10
SYMBOL voltage 416 704 R0
SYMATTR InstName V2
SYMBOL Digital\\and -112 752 R0
SYMATTR InstName A1
