Version 4
SHEET 1 912 680
WIRE 448 -144 368 -144
WIRE 704 -144 528 -144
WIRE 368 -16 368 -144
WIRE 368 -16 240 -16
WIRE 240 16 240 -16
WIRE 368 32 368 -16
WIRE 704 80 704 -144
WIRE 192 96 160 96
WIRE 240 144 240 112
WIRE 368 144 368 96
WIRE 368 144 240 144
WIRE 432 144 368 144
WIRE 64 176 -96 176
WIRE 160 176 160 96
WIRE 160 176 144 176
WIRE 368 176 240 176
WIRE 704 176 704 160
WIRE 704 176 368 176
WIRE 240 192 240 176
WIRE 368 208 368 176
WIRE -96 256 -96 176
WIRE 160 272 160 176
WIRE 192 272 160 272
WIRE 240 320 240 288
WIRE 368 320 368 272
WIRE 368 320 240 320
WIRE 432 320 432 144
WIRE 432 320 368 320
WIRE -96 432 -96 336
WIRE 80 432 -96 432
WIRE 368 432 368 320
WIRE 368 432 80 432
WIRE 80 464 80 432
FLAG 80 464 0
SYMBOL nmos 192 16 R0
SYMATTR InstName M1
SYMATTR Value IRFP250N
SYMBOL nmos 192 192 R0
SYMATTR InstName M2
SYMATTR Value IRFP250N
SYMBOL schottky 384 96 R180
WINDOW 0 24 64 Left 2
WINDOW 3 24 0 Left 2
SYMATTR InstName D1
SYMATTR Value MBR20100CT
SYMATTR Description Diode
SYMATTR Type diode
SYMBOL schottky 384 272 R180
WINDOW 0 24 64 Left 2
WINDOW 3 24 0 Left 2
SYMATTR InstName D2
SYMATTR Value MBR20100CT
SYMATTR Description Diode
SYMATTR Type diode
SYMBOL voltage 704 64 R0
WINDOW 123 0 0 Left 0
WINDOW 39 0 0 Left 0
SYMATTR InstName V1
SYMATTR Value SINE(0 40 120)
SYMBOL res 544 -160 R90
WINDOW 0 0 56 VBottom 2
WINDOW 3 32 56 VTop 2
SYMATTR InstName R1
SYMATTR Value 10
SYMBOL res 160 160 R90
WINDOW 0 0 56 VBottom 2
WINDOW 3 32 56 VTop 2
SYMATTR InstName R3
SYMATTR Value 10
SYMBOL voltage -96 240 R0
WINDOW 123 0 0 Left 0
WINDOW 39 0 0 Left 0
SYMATTR InstName V2
SYMATTR Value PULSE(0 10 0 1u 1u 15m 30m)
TEXT -248 -152 Left 2 !.tran 100m
